tests/data/short_circuit/dummy-test-line-into-itself/input.json
{
  "version": "1.0",
  "type": "input",
  "is_batch": false,
  "attributes": {},
  "data": {
    "node": [
      {
        "id": 1,
        "u_rated": 10e3
      },
      {
        "id": 2,
        "u_rated": 10e3
      },
      {
        "id": 3,
        "u_rated": 10e3
      }
    ],
    "line": [
      {
        "id": 4,
        "from_node": 1,
        "to_node": 2,
        "from_status": 1,
        "to_status": 1,
        "r1": 0.2,
        "x1": 0.1,
        "c1": 0.0001,
        "tan1": 0.002,
        "r0": 0.1,
        "x0": 0.3,
        "c0": 0.001,
        "tan0": 0.005
      },
      {
        "id": 5,
        "from_node": 1,
        "to_node": 1,
        "from_status": 0,
        "to_status": 0,
        "r1": 0.01,
        "x1": 0.03,
        "c1": 2.0e-6,
        "tan1": 0.1,
        "r0": 0.02,
        "x0": 0.04,
        "c0": 1.0e-6,
        "tan0": 0.2,
        "extra": "Line connected to itself on the source node (see readme)"
      },
      {
        "id": 6,
        "from_node": 3,
        "to_node": 3,
        "from_status": 0,
        "to_status": 0,
        "r1": 0.01,
        "x1": 0.03,
        "c1": 2.0e-6,
        "tan1": 0.1,
        "r0": 0.02,
        "x0": 0.04,
        "c0": 1.0e-6,
        "tan0": 0.2,
        "extra": "Line connected to itself on the load node (see readme)"
      }
    ],
    "shunt": [
      {
        "id": 7,
        "node": 1,
        "status": 0,
        "g1": 6.283185307179587e-5,
        "b1": 6.283185307179587e-4,
        "g0": 6.283185307179587e-5,
        "b0": 3.141592653589793e-4,
        "extra": "The shunt that mimics the line into itself on the source node and acts as a benchmark (see readme)"
      },
      {
        "id": 8,
        "node": 3,
        "status": 0,
        "g1": 6.283185307179587e-5,
        "b1": 6.283185307179587e-4,
        "g0": 6.283185307179587e-5,
        "b0": 3.141592653589793e-4,
        "extra": "The shunt that mimics the line into itself on the load node and acts as a benchmark (see readme)"
      }
    ],
    "link": [
      {
        "id": 9,
        "from_node": 2,
        "to_node": 3,
        "from_status": 1,
        "to_status": 1
      }
    ],
    "source": [
      {
        "id": 10,
        "node": 1,
        "status": 1,
        "u_ref": 1.05,
        "sk": 1e12
      }
    ],
    "sym_load": [
      {
        "id": 11,
        "node": 3,
        "status": 1,
        "type": 1,
        "p_specified": 6.0e5,
        "q_specified": 3.0e5
      }
    ],
    "asym_load": [
      {
        "id": 12,
        "node": 3,
        "status": 1,
        "type": 1,
        "p_specified": [2.0e5, 1.0e5, 3.0e5],
        "q_specified": [1.0e5, 1.0e5, 1.0e5]
      }
    ],
    "fault": [
      {
        "id": 13,
        "status": 1,
        "fault_type": 1,
        "fault_phase": 1,
        "fault_object": 1
      },
      {
        "id": 14,
        "status": 1,
        "fault_type": 1,
        "fault_phase": 1,
        "fault_object": 2
      },
      {
        "id": 15,
        "status": 1,
        "fault_type": 1,
        "fault_phase": 1,
        "fault_object": 3
      }
    ]
  }
}