tests/data/short_circuit/dummy-test-line-into-itself/sc_output_batch.json
{
  "version": "1.0",
  "type": "sc_output",
  "is_batch": true,
  "attributes": {},
  "data": [
    {
      "node": [
        {"id": 1, "energized": 1, "u_pu": [0, 1.1000085051886814, 1.1000108403504789], "u": [0, 6350.9020658156305, 6350.9155478785542], "u_angle": [0, -2.0944051357491285, 2.0944031412405195]},
        {"id": 2, "energized": 1, "u_pu": [0, 1.1003716981464888, 1.1171594117221935], "u": [0, 6352.9989613352091, 6449.9228708553237], "u_angle": [0, -2.11299104292699, 2.0974647148634631]},
        {"id": 3, "energized": 1, "u_pu": [0, 1.1003716981464888, 1.1171594117221935], "u": [0, 6352.9989613352091, 6449.9228708553237], "u_angle": [0, -2.11299104292699, 2.0974647148634631]}
      ],
      "line": [
        {"id": 4, "energized": 1, "i_from": [309.26720896846183, 728.95311389847882, 732.36706918693665], "i_from_angle": [-2.342225010783749, -1.3419769001273003, -1.8295941677652336], "i_to": [436.49475859030622, 3.6564828118782797, 3.8271126370469779], "i_to_angle": [-1.0791566177549867, 2.6521921806036364, 0.26542206255127265]},
        {"id": 5, "energized": 0, "i_from": [0, 0, 0], "i_from_angle": [0, 0, 0], "i_to": [0, 0, 0], "i_to_angle": [0, 0, 0]},
        {"id": 6, "energized": 0, "i_from": [0, 0, 0], "i_from_angle": [0, 0, 0], "i_to": [0, 0, 0], "i_to_angle": [0, 0, 0]}
      ],
      "link": [
        {"id": 9, "energized": 1, "i_from": [217.35499180892168, 3.6564828118781243, 3.8271126370495732], "i_from_angle": [-1.0768467413750908, -0.48940047298674505, -2.876170591038945], "i_to": [217.35499180892168, 3.6564828118781243, 3.8271126370495732], "i_to_angle": [2.0647459122147023, 2.6521921806030484, 0.26542206255084838]}
      ],
      "shunt": [
        {"id": 7, "energized": 1, "i": [0.66507602394766741, 3.662123914711533, 3.7855694022618405], "i_angle": [1.5707934911319965, -0.47527611928439734, -2.878481353161173]},
        {"id": 8, "energized": 1, "i": [0.68295359741671724, 3.6564828118781243, 3.8271126370495732], "i_angle": [1.5502434589673786, -0.48940047298674505, -2.876170591038945]}
      ],
      "source": [
        {"id": 10, "energized": 1, "i": [57735026.91896259, 731.3290972068603, 734.26164506055841], "i_angle": [-1.4711276743037347, -1.3381601944204053, -1.8340634242795675]}
      ],
      "sym_load": [
        {"id": 11, "energized": 0, "i": [0, 0, 0], "i_angle": [0, 0, 0]}
      ],
      "asym_load": [
        {"id": 12, "energized": 0, "i": [0, 0, 0], "i_angle": [0, 0, 0]}
      ],
      "fault": [
        {"id": 13, "energized": 1, "i_f": [57734828.417026244, 0, 0], "i_f_angle": [-1.4711235773938329, 0, 0]},
        {"id": 14, "energized": 1, "i_f": [217.94978776791402, 0, 0], "i_f_angle": [2.0632038927643763, 0, 0]},
        {"id": 15, "energized": 1, "i_f": [217.94978776791402, 0, 0], "i_f_angle": [2.0632038927643763, 0, 0]}
      ]
    },
    {
      "node": [
        {"id": 1, "energized": 1, "u_pu": [0, 1.1000085051886814, 1.1000108403504789], "u": [0, 6350.9020658156305, 6350.9155478785542], "u_angle": [0, -2.0944051357491285, 2.0944031412405195]},
        {"id": 2, "energized": 1, "u_pu": [0, 1.1003716981464888, 1.1171594117221937], "u": [0, 6352.9989613352091, 6449.9228708553246], "u_angle": [0, -2.11299104292699, 2.0974647148634631]},
        {"id": 3, "energized": 1, "u_pu": [0, 1.1003716981464888, 1.1171594117221937], "u": [0, 6352.9989613352091, 6449.9228708553246], "u_angle": [0, -2.11299104292699, 2.0974647148634631]}
      ],
      "line": [
        {"id": 4, "energized": 1, "i_from": [309.26720896846274, 728.95311389848041, 732.36706918694256], "i_from_angle": [-2.3422250107837539, -1.341976900127301, -1.8295941677652292], "i_to": [436.49475859030684, 3.6564828118790511, 3.827112637047116], "i_to_angle": [-1.079156617754981, 2.6521921806032402, 0.26542206255304013]},
        {"id": 5, "energized": 1, "i_from": [0.33253801197393196, 1.8310619573592648, 1.8927847011551617], "i_from_angle": [1.5707934911397083, -0.47527611928096908, -2.8784813531637403], "i_to": [0.33253801197393196, 1.8310619573592648, 1.8927847011551617], "i_to_angle": [1.5707934911397083, -0.47527611928096908, -2.8784813531637403]},
        {"id": 6, "energized": 1, "i_from": [0.34147679870586023, 1.8282414059425167, 1.9135563185173623], "i_from_angle": [1.5502434589649734, -0.48940047298771522, -2.8761705910323183], "i_to": [0.34147679870586023, 1.8282414059425167, 1.9135563185173623], "i_to_angle": [1.5502434589649734, -0.48940047298771522, -2.8761705910323183]}
      ],
      "link": [
        {"id": 9, "energized": 1, "i_from": [217.35499180892947, 3.6564828118850334, 3.8271126370347246], "i_from_angle": [-1.0768467413750977, -0.48940047298771522, -2.8761705910323183], "i_to": [217.35499180892947, 3.6564828118850334, 3.8271126370347246], "i_to_angle": [2.0647459122146956, 2.6521921806020781, 0.26542206255747486]}
      ],
      "shunt": [
        {"id": 7, "energized": 0, "i": [0, 0, 0], "i_angle": [0, 0, 0]},
        {"id": 8, "energized": 0, "i": [0, 0, 0], "i_angle": [0, 0, 0]}
      ],
      "source": [
        {"id": 10, "energized": 1, "i": [57735026.91896259, 731.3290972068603, 734.26164506055841], "i_angle": [-1.4711276743037347, -1.3381601944204053, -1.8340634242795675]}
      ],
      "sym_load": [
        {"id": 11, "energized": 0, "i": [0, 0, 0], "i_angle": [0, 0, 0]}
      ],
      "asym_load": [
        {"id": 12, "energized": 0, "i": [0, 0, 0], "i_angle": [0, 0, 0]}
      ],
      "fault": [
        {"id": 13, "energized": 1, "i_f": [57734828.417026244, 0, 0], "i_f_angle": [-1.4711235773938329, 0, 0]},
        {"id": 14, "energized": 1, "i_f": [217.94978776791663, 0, 0], "i_f_angle": [2.0632038927643745, 0, 0]},
        {"id": 15, "energized": 1, "i_f": [217.94978776791663, 0, 0], "i_f_angle": [2.0632038927643745, 0, 0]}
      ]
    }
  ]
}
